   12
Geometry Step: 0
    H      1.39607000      0.43074000      2.15996000      0.92968011
    C      0.85913000      0.50351000      1.20875000      4.07031277
    C     -0.53080000      0.56071000      1.19732000      4.07032900
    H     -1.08772000      0.53293000      2.13935000      0.92967479
    C     -1.21318000      0.65312000     -0.01143000      4.07031685
    H     -2.30692000      0.69804000     -0.02044000      0.92969535
    C     -0.50578000      0.68838000     -1.20876000      4.07032999
    H     -1.04276000      0.76109000     -2.15990000      0.92966796
    C      0.88412000      0.63113000     -1.19730000      4.07031927
    H      1.44077000      0.65875000     -2.13946000      0.92967718
    C      1.56654000      0.53873000      0.01143000      4.07031519
    H      2.66024000      0.49368000      0.02049000      0.92968155
   12
Geometry Step: 1
    H      1.39925154      0.43031730      2.16550949      0.92730244
    C      0.86476914      0.50273118      1.21903042      4.07268533
    C     -0.53675090      0.56040047      1.20737038      4.07264215
    H     -1.09095664      0.53276798      2.14492215      0.92734691
    C     -1.22504028      0.65361195     -0.01154519      4.07274344
    H     -2.31335218      0.69831422     -0.02048486      0.92726891
    C     -0.51148320      0.68914268     -1.21890225      4.07264478
    H     -1.04595718      0.76152059     -2.16552212      0.92734794
    C      0.89006662      0.63143325     -1.20740490      4.07267132
    H      1.44410291      0.65892221     -2.14503866      0.92732159
    C      1.57833262      0.53823500      0.01155734      4.07273409
    H      2.66672754      0.49341318      0.02051821      0.92729109
   12
Geometry Step: 2
    H      1.39721081      0.43058843      2.16194988      0.92882345
    C      0.86115203      0.50323074      1.21243626      4.07116764
    C     -0.53293382      0.56059901      1.20092377      4.07116225
    H     -1.08888056      0.53287191      2.14134801      0.92883626
    C     -1.21743275      0.65329640     -0.01147130      4.07119126
    H     -2.30922639      0.69813833     -0.02045609      0.92882095
    C     -0.50782500      0.68865347     -1.21239671      4.07116381
    H     -1.04390641      0.76124440     -2.16191593      0.92883227
    C      0.88625228      0.63123874     -1.20092332      4.07116674
    H      1.44196508      0.65881175     -2.14146034      0.92882853
    C      1.57076849      0.53855251      0.01147566      4.07118660
    H      2.66256624      0.49358433      0.02050011      0.92882025
   12
Geometry Step: 3
    H      1.39953477      0.43027729      2.16603492      0.92932190
    C      0.86158098      0.50317299      1.21317965      4.07067332
    C     -0.53342209      0.56057287      1.20165531      4.07067328
    H     -1.09125517      0.53275318      2.14541603      0.92932933
    C     -1.21831360      0.65333398     -0.01148631      4.07067391
    H     -2.31396475      0.69833867     -0.02049187      0.92932597
    C     -0.50827509      0.68870555     -1.21313826      4.07067213
    H     -1.04622922      0.76155787     -2.16601298      0.92932965
    C      0.88673024      0.63126038     -1.20165065      4.07067688
    H      1.44438788      0.65893615     -2.14553134      0.92932658
    C      1.57162373      0.53851216      0.01150738      4.07066338
    H      2.66731232      0.49338891      0.02052812      0.92933368
   12
Geometry Step: 4
    H      1.40329502      0.42977384      2.17264464      0.93012380
    C      0.86227505      0.50307956      1.21438250      4.06987799
    C     -0.53421212      0.56053058      1.20283896      4.06988662
    H     -1.09509738      0.53256107      2.15199822      0.93012245
    C     -1.21973885      0.65339478     -0.01151060      4.06984152
    H     -2.32163157      0.69866283     -0.02054976      0.93013864
    C     -0.50900335      0.68878982     -1.21433811      4.06988112
    H     -1.04998760      0.76206507     -2.17264215      0.93012980
    C      0.88750359      0.63129540     -1.20282749      4.06988885
    H      1.44830806      0.65913744     -2.15211835      0.93012772
    C      1.57300754      0.53844689      0.01155871      4.06982150
    H      2.67499163      0.49307272      0.02057343      0.93015999
   12
Geometry Step: 5
    H      1.40060180      0.43013443      2.16791053      0.92955004
    C      0.86177794      0.50314648      1.21352098      4.07044704
    C     -0.53364627      0.56056087      1.20199119      4.07044946
    H     -1.09234546      0.53269866      2.14728383      0.92955496
    C     -1.21871804      0.65335123     -0.01149320      4.07043712
    H     -2.31614033      0.69843065     -0.02050829      0.92955713
    C     -0.50848175      0.68872947     -1.21347874      4.07044711
    H     -1.04729572      0.76170179     -2.16789411      0.92955728
    C      0.88694969      0.63127032     -1.20198460      4.07045269
    H      1.44550030      0.65899327     -2.14740051      0.92955452
    C      1.57201641      0.53849364      0.01152195      4.07042391
    H      2.66949144      0.49329919      0.02054098      0.92956873
   12
Geometry Step: 6
    H      1.39913654      0.43036482      2.16524422      0.93122142
    C      0.85708838      0.50354301      1.20846696      4.06859004
    C     -0.52897293      0.56059095      1.19718854      4.06847121
    H     -1.09078655      0.53279014      2.14489707      0.93115252
    C     -1.21325647      0.65307102     -0.01132997      4.07026664
    H     -2.31360516      0.69841956     -0.02054387      0.93041021
    C     -0.50355999      0.68826111     -1.20901030      4.06868369
    H     -1.04577951      0.76147687     -2.16497981      0.93099284
    C      0.88198532      0.63118618     -1.19713122      4.06828796
    H      1.44408501      0.65897913     -2.14434333      0.93128650
    C      1.56735739      0.53869549      0.01096987      4.07073930
    H      2.66601796      0.49343173      0.02058185      0.92989766
   12
Geometry Step: 7
    H      1.40057153      0.43013919      2.16785545      0.92958438
    C      0.86168105      0.50315467      1.21341657      4.07040887
    C     -0.53354972      0.56056149      1.20189197      4.07040874
    H     -1.09231325      0.53270055      2.14723452      0.92958782
    C     -1.21860521      0.65334544     -0.01148983      4.07043360
    H     -2.31608796      0.69843042     -0.02050903      0.92957478
    C     -0.50838006      0.68871979     -1.21338642      4.07041078
    H     -1.04726440      0.76169715     -2.16783390      0.92958683
    C      0.88684713      0.63126858     -1.20188433      4.07040818
    H      1.44547106      0.65899298     -2.14733735      0.92959010
    C      1.57192015      0.53849781      0.01151054      4.07043032
    H      2.66941968      0.49330193      0.02054182      0.92957560
